108

C -1.23386 -2.13806 -5.05353
C -1.23490 -2.13733 -1.68451
C -1.23373 -0.71281 -5.05353
C -0.00065 -1.42489 -1.68451
C -1.23386 -2.13806  1.68451
C -1.23490 -2.13733  5.05353
C -1.23373 -0.71281  1.68451
C -0.00065 -1.42489  5.05353
C -1.23386 -2.13806  8.42255
C -1.23490 -2.13733 11.79157
C -1.23373 -0.71281  8.42255
C -0.00065 -1.42489 11.79157
C -2.46785 -0.00049 -5.05353
C -2.46890  0.00024 -1.68451
C -2.46772  1.42476 -5.05353
C -1.23465  0.71269 -1.68451
C -2.46785 -0.00049  1.68451
C -2.46890  0.00024  5.05353
C -2.46772  1.42476  1.68451
C -1.23465  0.71269  5.05353
C -2.46785 -0.00049  8.42255
C -2.46890  0.00024 11.79157
C -2.46772  1.42476  8.42255
C -1.23465  0.71269 11.79157
C -3.70185  2.13709 -5.05353
C -3.70290  2.13782 -1.68451
C -3.70172  3.56234 -5.05353
C -2.46865  2.85026 -1.68451
C -3.70185  2.13709  1.68451
C -3.70290  2.13782  5.05353
C -3.70172  3.56234  1.68451
C -2.46865  2.85026  5.05353
C -3.70185  2.13709  8.42255
C -3.70290  2.13782 11.79157
C -3.70172  3.56234  8.42255
C -2.46865  2.85026 11.79157
C  1.23452 -2.13794 -5.05353
C  1.23348 -2.13721 -1.68451
C  1.23465 -0.71269 -5.05353
C  2.46772 -1.42476 -1.68451
C  1.23452 -2.13794  1.68451
C  1.23348 -2.13721  5.05353
C  1.23465 -0.71269  1.68451
C  2.46772 -1.42476  5.05353
C  1.23452 -2.13794  8.42255
C  1.23348 -2.13721 11.79157
C  1.23465 -0.71269  8.42255
C  2.46772 -1.42476 11.79157
C  0.00052 -0.00037 -5.05353
C -0.00052  0.00037 -1.68451
C  0.00065  1.42489 -5.05353
C  1.23373  0.71281 -1.68451
C  0.00052 -0.00037  1.68451
C -0.00052  0.00037  5.05353
C  0.00065  1.42489  1.68451
C  1.23373  0.71281  5.05353
C  0.00052 -0.00037  8.42255
C -0.00052  0.00037 11.79157
C  0.00065  1.42489  8.42255
C  1.23373  0.71281 11.79157
C -1.23348  2.13721 -5.05353
C -1.23452  2.13794 -1.68451
C -1.23335  3.56246 -5.05353
C -0.00027  2.85039 -1.68451
C -1.23348  2.13721  1.68451
C -1.23452  2.13794  5.05353
C -1.23335  3.56246  1.68451
C -0.00027  2.85039  5.05353
C -1.23348  2.13721  8.42255
C -1.23452  2.13794 11.79157
C -1.23335  3.56246  8.42255
C -0.00027  2.85039 11.79157
C  3.70290 -2.13782 -5.05353
C  3.70185 -2.13709 -1.68451
C  3.70303 -0.71257 -5.05353
C  4.93610 -1.42464 -1.68451
C  3.70290 -2.13782  1.68451
C  3.70185 -2.13709  5.05353
C  3.70303 -0.71257  1.68451
C  4.93610 -1.42464  5.05353
C  3.70290 -2.13782  8.42255
C  3.70185 -2.13709 11.79157
C  3.70303 -0.71257  8.42255
C  4.93610 -1.42464 11.79157
C  2.46890 -0.00024 -5.05353
C  2.46785  0.00049 -1.68451
C  2.46903  1.42501 -5.05353
C  3.70210  0.71294 -1.68451
C  2.46890 -0.00024  1.68451
C  2.46785  0.00049  5.05353
C  2.46903  1.42501  1.68451
C  3.70210  0.71294  5.05353
C  2.46890 -0.00024  8.42255
C  2.46785  0.00049 11.79157
C  2.46903  1.42501  8.42255
C  3.70210  0.71294 11.79157
C  1.23490  2.13733 -5.05353
C  1.23386  2.13806 -1.68451
C  1.23503  3.56258 -5.05353
C  2.46810  2.85051 -1.68451
C  1.23490  2.13733  1.68451
C  1.23386  2.13806  5.05353
C  1.23503  3.56258  1.68451
C  2.46810  2.85051  5.05353
C  1.23490  2.13733  8.42255
C  1.23386  2.13806 11.79157
C  1.23503  3.56258  8.42255
C  2.46810  2.85051 11.79157
